991.812266 300.109192 11.245024
   15.000001 300.109192 11.245025 -3.737915  5.978801
   45.000000 299.984589 11.028764 -4.017910  7.596951
   75.000000 299.846649 10.961050 -4.410975  9.167416
  105.000008 299.884613 10.919956 -4.857088 10.810944
  135.000000 299.902222 10.962980 -5.221412 12.511729
  165.000000 299.901733 10.892302 -5.458016 14.083475
  195.000015 299.875275 10.849120 -5.612545 15.370283
  225.000015 299.866852 10.911119 -5.664648 16.338421
  255.000031 299.873291 10.910132 -5.642295 17.083683
  285.000031 299.871674 10.867970 -5.587420 17.606960
  315.000031 299.889465 10.870766 -5.450285 17.772562
  345.000031 299.871216 10.858873 -5.190063 17.732374
  375.000031 299.877014 10.876290 -4.888155 17.694820
  405.000031 299.867432 10.904267 -4.714906 17.889963
  435.000031 299.877869 10.859746 -4.709770 18.281303
  465.000031 299.889648 10.780683 -4.802398 18.867435
  495.000031 299.897369 10.808275 -4.949037 19.507927
  525.000061 299.877930 10.787235 -5.105102 20.018967
  555.000000 299.887268 10.815727 -5.221050 20.495680
  585.000061 299.901642 10.832501 -5.308328 20.999733
  615.000000 299.899445 10.799014 -5.384378 21.458286
  645.000061 299.895813 10.823974 -5.447204 21.777454
  675.000000 299.873535 10.692697 -5.507832 22.001156
  705.000061 299.886261 10.801619 -5.549423 22.190392
  735.000000 299.872650 10.804633 -5.556099 22.380960
  765.000061 299.872284 10.796331 -5.521813 22.596184
  795.000000 299.882202 10.763582 -5.449268 22.833071
  825.000061 299.942535 10.653557 -5.347770 23.077019
  855.000000 299.950104 10.619484 -5.228318 23.319498
  885.000061 299.901886 10.600468 -5.096395 23.557217
  915.000000 299.876801 10.717278 -4.961784 23.776937
  945.000061 299.896576 10.641872 -4.850363 23.964060
  975.000000 299.959564 10.657864 -4.752312 24.115658
 1005.000000 299.952148 10.622966 -4.656850 24.243172
 1035.000122 299.974121 10.594733 -4.585971 24.370037
 1065.000000 299.966553 10.676848 -4.545376 24.495192
 1095.000000 299.987091 10.607992 -4.524266 24.607054
 1125.000000 299.972748 10.620218 -4.517968 24.722239
 1155.000122 299.962250 10.658308 -4.521516 24.875408
 1185.000122 299.993286 10.669106 -4.531917 25.065189
 1215.000000 299.965607 10.602886 -4.553758 25.278528
 1245.000000 299.948517 10.605977 -4.578392 25.501217
 1275.000122 300.012451 10.625533 -4.573699 25.724312
 1305.000122 299.966644 10.661531 -4.524882 25.945133
 1335.000000 299.960541 10.669058 -4.443168 26.168917
 1365.000000 299.988373 10.665588 -4.325754 26.412382
 1395.000122 300.045563 10.565920 -4.173522 26.712215
 1425.000122 300.499359 10.255873 -3.942931 27.103722
 1455.000000 300.582581 10.284526 -3.595087 27.628471
 1485.000000 300.683472 10.205832 -3.169550 28.215044
 1515.000122 300.748901 10.261098 -2.735118 28.794689
 1545.000122 300.867645 10.188058 -2.313202 29.337753
 1575.000000 301.078217 10.045511 -1.872085 29.826794
 1605.000000 301.188965 10.091064 -1.369536 30.227873
 1635.000122 301.234863 10.051893 -0.803758 30.554756
 1665.000122 301.353577 10.006137 -0.136481 30.883961
 1695.000000 301.349426  9.954779  0.598544 31.292074
 1725.000000 301.409851  9.892398  1.275543 31.791317
 1755.000122 301.736420  9.807742  1.858050 32.279125
 1785.000122 301.965240  9.814457  2.383269 32.664543
 1815.000000 302.210602  9.746258  2.836265 32.962795
 1845.000000 302.283264  9.734730  3.186131 33.200760
 1875.000122 302.373718  9.561507  3.434767 33.389069
 1905.000122 302.409332  9.651083  3.610577 33.513397
 1935.000122 302.460144  9.605667  3.774534 33.510269
 1965.000122 302.551819  9.469255  3.991713 33.345646
 1995.000122 302.664642  9.382671  4.332566 33.065479
 2025.000122 302.769928  9.327312  4.827444 32.848694
 2055.000000 302.956787  9.207871  5.438226 32.782578
 2085.000000 303.053711  9.158978  6.103956 32.809601
 2115.000000 303.097870  9.021625  6.773333 32.861931
 2145.000244 303.288788  8.875189  7.401232 32.943726
 2175.000244 303.629791  8.763377  7.937325 33.082409
 2205.000244 304.047302  8.635004  8.326183 33.308548
 2235.000244 304.169403  8.635795  8.619285 33.559830
 2265.000000 304.366638  8.449691  8.915004 33.740894
 2295.000000 304.586365  8.459640  9.279507 33.801056
 2325.000000 304.623291  8.466564  9.731920 33.720375
 2355.000000 304.634064  8.458097 10.210168 33.506096
 2385.000244 304.755798  8.329092 10.612629 33.220947
 2415.000244 304.963287  8.391501 10.891127 32.964813
 2445.000244 305.060516  8.333822 11.082275 32.778458
 2475.000244 305.108124  8.294312 11.245848 32.643044
 2505.000000 305.185425  8.203442 11.404198 32.524445
 2535.000000 305.618042  7.759068 11.569973 32.379799
 2565.000000 305.742340  7.683203 11.751133 32.223129
 2595.000000 305.811859  7.612391 11.944668 32.074211
 2625.000244 306.052856  7.351333 12.142870 31.956062
 2655.000244 306.258850  7.282455 12.327422 31.873436
 2685.000244 306.412506  7.114826 12.478245 31.804657
 2715.000244 306.607697  6.938600 12.595057 31.734051
 2745.000244 306.705231  6.872361 12.684944 31.661789
 2775.000000 306.793091  6.787561 12.761862 31.601467
 2805.000000 306.912415  6.668107 12.833675 31.570702
 2835.000000 306.975830  6.622150 12.900932 31.566906
 2865.000244 307.029114  6.552919 12.960149 31.571842
 2895.000244 307.046143  6.539464 13.009539 31.572411
 2925.000244 307.059723  6.563313 13.049702 31.542341
 2955.000244 307.086945  6.527619 13.080467 31.458302
 2985.000244 307.106323  6.520315 13.097939 31.307770
 3015.000000 307.135925  6.509789 13.108582 31.124243
 3048.077148 307.147369  6.441918 13.124555 30.968603
 3087.307617 307.210754  6.382340 13.147907 30.843086
 3132.692627 307.283630  6.294471 13.178198 30.737350
 3184.230957 307.353394  6.212101 13.261365 30.608700
 3241.923340 307.451599  6.044308 13.542251 30.428799
 3305.769287 307.624054  6.034213 14.179885 30.291737
 3375.769043 307.943176  5.618286 15.157219 30.245134
 3451.923340 309.267792  4.060907 16.370481 30.094353
 3534.231201 309.666107  3.230943 17.316723 29.937998
 3622.692627 309.894165  2.611475 17.414858 30.257231
 3717.307861 311.159271  1.373721 16.719433 30.662689
 3818.077148 311.476440  1.357475 15.791157 30.703543
 3925.000244 312.386139  1.243023 15.191658 30.541538
 4038.076904 312.965851  1.197152 14.807769 30.563129
 4157.307617 313.240417  1.095577 14.168779 30.465464
 4282.692383 313.906555  1.229909 13.784361 30.379095
 4414.230957 313.597687  2.260492 13.751739 30.416731
 4551.923340 313.728027  1.665682 14.086333 30.444962
 4695.770020 313.338562  2.290561 14.415499 30.608780
 4845.770020 315.952972  4.072308 14.124353 30.448980
 5001.922852 316.593750  3.855246 13.850592 30.351065
 5164.230957 317.149994  3.589440 13.637770 30.061754
 5332.692383 317.825958  3.460513 13.147432 29.466457
 5507.308105 318.471985  3.270007 12.461443 28.828335
 5688.077637 319.216614  3.075068 12.374289 28.292551
 5875.000488 319.838135  2.677814 13.483302 27.889511
 6068.077148 320.423035  2.440371 16.106926 27.583416
 6267.307617 321.493744  2.224344 19.005516 27.939426
 6472.692383 321.980194  2.109754 20.752089 27.966398
 6684.230957 322.911133  1.924931 22.257126 27.788509
 6901.923340 323.674438  1.648498 24.006763 28.257372
 7125.769531 324.436676  1.372391 25.259636 29.186531
 7355.768555 325.273468  1.255247 25.703588 30.074570
 7591.923340 326.169281  1.073547 25.672817 30.641052
 7834.230957 326.877106  0.918863 26.339100 30.653088
 8082.692871 328.306763  0.795664 28.086594 28.960281
 8337.307617 329.460999  0.716653 29.228268 23.161182
 8598.078125 330.840424  0.649452 29.525846 16.934834
 8865.000977 332.011322  0.576424 32.301014 15.189493
 9135.000000 333.157867  0.502409 34.672611 15.888698
 9405.000977 334.279663  0.423909 36.844147 17.471710
 9675.000000 335.145660  0.358735 39.832939 19.248093
 9945.000977 335.872467  0.292468 42.569008 19.825928
10215.000000 336.567230  0.248122 45.600288 19.384014
10485.000977 337.431091  0.207091 47.430260 18.563461
10755.000000 337.855225  0.168662 47.741211 17.911465
11025.000977 338.210480  0.132042 47.711681 17.605171
11295.000000 338.512146  0.102879 47.569389 17.403385
11565.000977 339.021484  0.079071 47.059677 16.965000
11835.000977 339.364014  0.063540 46.330929 16.876194
12105.000977 339.666779  0.046437 46.710335 16.215353
12375.000977 340.428925  0.033917 44.426422 14.308670
12645.000000 354.219574  0.004663 35.930580  8.559609
12915.000977 357.615692  0.005093 29.268475  6.331709
13185.000000 361.050140  0.003826 27.188093  6.354979
13455.000977 362.663239  0.003617 25.606163  5.126967
13725.000000 366.553101  0.003230 22.677956  4.860019
13995.000977 367.543335  0.003186 20.578039  6.099566
14265.000000 370.646790  0.002700 20.889078  6.869259
14535.000977 374.350739  0.002496 20.507053  5.322329
14805.000000 377.457367  0.002387 17.423635  2.234747
15075.000977 377.956268  0.002455 14.398188  2.355086
15345.000000 380.618866  0.002378 13.048073  4.163661